FoamFile
{
    format      ascii;
    class       volVectorField;
    object      U;
}

dimensions      [0 1 -1 0 0 0 0];

// !!fs
internalField  uniform (45.804 0 0);
// !!fs

boundaryField
{
    inlet
    {
        type            freestreamVelocity;
        freestreamValue $internalField;
    }

    outlet
    {
        type            freestreamVelocity;
        freestreamValue $internalField;
    }

    airfoil
    {
        type            noSlip;
    }

    front
    {
        type            empty;
    }

    back
    {
        type            empty;
    }
}